/*--------------------------------*- C++ -*----------------------------------*\
| =========                 |                                                 |
| \\      /  F ield         | OpenFOAM: The Open Source CFD Toolbox           |
|  \\    /   O peration     | Version:  v1912                                 |
|   \\  /    A nd           | Website:  www.openfoam.com                      |
|    \\/     M anipulation  |                                                 |
\*---------------------------------------------------------------------------*/
FoamFile
{
    version     2.0;
    format      ascii;
    class       dictionary;
    object      blockMeshDict;
}
// * * * * * * * * * * * * * * * * * * * * * * * * * * * * * * * * * * * * * //

scale   1.0;

vertices
(
    (-1 -1 -1)
    (1 -1 -1)
    (1 1 -1)
    (-1 1 -1)
    (-1 -1 41)
    (1 -1 41)
    (1 1 41)
    (-1 1 41)
);

blocks
(
    hex (0 1 2 3 4 5 6 7) (5 5 100) simpleGrading (1 1 1)
);

edges
(
);

boundary
(
    movingWall
    {
        type patch;
        faces
        (
            (3 7 6 2)
        );
    }

    leftSide
    {
        type patch;
        faces
        (
            (0 4 7 3)  // this is left side
        );
    }

    rightSide
    {
        type patch;
        faces
        (
            (2 6 5 1)  // this is right side
        );
    }

    fixedWall
    {
        type patch;
        faces
        (
            (1 5 4 0)  // this is the bottom fixed wall
        );
    }

    frontAndBack
    {
        type patch;
        faces
        (
            (0 3 2 1)
            (4 5 6 7)
        );
    }
);

mergePatchPairs
(
);

// ************************************************************************* //
