/*--------------------------------*- C++ -*----------------------------------*\
| =========                 |                                                 |
| \\      /  F ield         | OpenFOAM: The Open Source CFD Toolbox           |
|  \\    /   O peration     | Version:  v1912                                 |
|   \\  /    A nd           | Website:  www.openfoam.com                      |
|    \\/     M anipulation  |                                                 |
\*---------------------------------------------------------------------------*/
FoamFile
{
    version     2.0;
    format      ascii;
    class       dictionary;
    object      createPatchDict;
}

// * * * * * * * * * * * * * * * * * * * * * * * * * * * * * * * * * * * * * //

// Do a synchronisation of coupled points after creation of any patches.
// Note: this does not work with points that are on multiple coupled patches
//       with transformations (i.e. cyclics).
pointSync false;

// Patches to create.
patches
(
    {
        // Name of new patch
        name top_patch;

        // Dictionary to construct new patch from
        patchInfo
        {
            type patch;
        }

        // How to construct: either from 'patches' or 'set'
        constructFrom set;

        // If constructFrom = patches : names of patches. Wildcards allowed.
        patches (inlet outlet topAndBottom);

        // If constructFrom = set : name of faceSet
        set top_patch;
    }

    {
        // Name of new patch
        name bottom_patch;

        // Dictionary to construct new patch from
        patchInfo
        {
            type patch;
        }

        // How to construct: either from 'patches' or 'set'
        constructFrom set;
        
        // If constructFrom = patches : names of patches. Wildcards allowed.
        patches (inlet outlet topAndBottom);

        // If constructFrom = set : name of faceSet
        set bottom_patch;
        
    }
    {
        // Name of new patch
        name wall_patch;

        // Dictionary to construct new patch from
        patchInfo
        {
            type wall;
        }

        // How to construct: either from 'patches' or 'set'
        constructFrom set;

        // If constructFrom = patches : names of patches. Wildcards allowed.
        patches (symFront symBack);

        // If constructFrom = set : name of faceSet
        set wall_patch;
    }
);

// ************************************************************************* //
