/*--------------------------------*- C++ -*----------------------------------*\
| =========                 |                                                 |
| \\      /  F ield         | OpenFOAM: The Open Source CFD Toolbox           |
|  \\    /   O peration     | Version:  v1912                                 |
|   \\  /    A nd           | Website:  www.openfoam.com                      |
|    \\/     M anipulation  |                                                 |
\*---------------------------------------------------------------------------*/
FoamFile
{
    version     2.0;
    format      ascii;
    class       polyBoundaryMesh;
    location    "0.01/polyMesh";
    object      boundary;
}
// * * * * * * * * * * * * * * * * * * * * * * * * * * * * * * * * * * * * * //

4
(
    top_patch
    {
        type            patch;
        nFaces          1319;
        startFace       2213921;
    }
    bottom_patch
    {
        type            patch;
        nFaces          3032;
        startFace       2215240;
    }
    wall_patch
    {
        type            wall;
        inGroups        1(wall);
        nFaces          174251;
        startFace       2218272;
    }
    cylinder
    {
        type            wall;
        inGroups        1(wall);
        nFaces          92942;
        startFace       2392523;
    }
)

// ************************************************************************* //
