/*--------------------------------*- C++ -*----------------------------------*\
| =========                 |                                                 |
| \\      /  F ield         | OpenFOAM: The Open Source CFD Toolbox           |
|  \\    /   O peration     | Version:  v1912                                 |
|   \\  /    A nd           | Website:  www.openfoam.com                      |
|    \\/     M anipulation  |                                                 |
\*---------------------------------------------------------------------------*/
FoamFile
{
    version     2.0;
    format      ascii;
    class       polyBoundaryMesh;
    location    "constant/polyMesh";
    object      boundary;
}
// * * * * * * * * * * * * * * * * * * * * * * * * * * * * * * * * * * * * * //

3
(
    top_patch
    {
        type            patch;
        nFaces          9880;
        startFace       2055164;
    }
    bottom_patch
    {
        type            patch;
        nFaces          9880;
        startFace       2065044;
    }
    wall_patch
    {
        type            wall;
        inGroups        1(wall);
        nFaces          251280;
        startFace       2074924;
    }
)

// ************************************************************************* //
