/*--------------------------------*- C++ -*----------------------------------*\
| =========                 |                                                 |
| \\      /  F ield         | OpenFOAM: The Open Source CFD Toolbox           |
|  \\    /   O peration     | Version:  v1912                                 |
|   \\  /    A nd           | Website:  www.openfoam.com                      |
|    \\/     M anipulation  |                                                 |
\*---------------------------------------------------------------------------*/
FoamFile
{
    version     2.0;
    format      ascii;
    class       volVectorField;
    object      U;
}
// * * * * * * * * * * * * * * * * * * * * * * * * * * * * * * * * * * * * * //

dimensions      [0 1 -1 0 0 0 0];

internalField   uniform (0 0 0.0001);

boundaryField
{
    top_patch  		// outlet for our case
    {
        type            zeroGradient;
    }

    wall_patch
    {
        type            noSlip;
    }

    bottom_patch 	 // inlet for our case
    {
        type            fixedValue;
        value           uniform (0 0 0.0001);
    }

}

// ************************************************************************* //
